/*--------------------------------*- C++ -*----------------------------------*\
  =========                 |
  \\      /  F ield         | OpenFOAM: The Open Source CFD Toolbox
   \\    /   O peration     | Website:  https://openfoam.org
    \\  /    A nd           | Version:  13
     \\/     M anipulation  |
\*---------------------------------------------------------------------------*/
FoamFile
{
    format      ascii;
    class       dictionary;
    location    "constant";
    object      physicalProperties.water;
}
// * * * * * * * * * * * * * * * * * * * * * * * * * * * * * * * * * * * * * //

thermoType
{
    type            heRhoThermo;
    mixture         pureMixture;
    transport       const;
    thermo          hConst;
    equationOfState rhoConst;
    specie          specie;
    energy          sensibleEnthalpy;
}

mixture
{
    specie
    {
        molWeight   28.9;
    }
    thermodynamics
    {
        Cp          1007;
        hf          0;
    }
    equationOfState
    {
        rho         1000.0;
    }
    transport
    {
        mu          1.e-03;
        Pr          0.7;
    }
}

solidificationModel
{
    type    linearExplicit;
    Lm      2.7e5;
    Tsol    165.80;
    Tliq    172.30;
    Cu      1e10;
    q       1e-3;
    relax   0.8;
}


// ************************************************************************* //
